*SPEF "ieee 1481-1999"
*DESIGN "alu_4"
*DATE "11:11:11 Fri 11 11, 1111"
*VENDOR "OpenRCX"
*PROGRAM "Parallel Extraction"
*VERSION "1.0"
*DESIGN_FLOW "NAME_SCOPE LOCAL" "PIN_CAP NONE"
*DIVIDER /
*DELIMITER :
*BUS_DELIMITER []
*T_UNIT 1 NS
*C_UNIT 1 PF
*R_UNIT 1 OHM
*L_UNIT 1 HENRY

*NAME_MAP
*1 A[0]
*2 A[1]
*3 A[2]
*4 A[3]
*5 B[0]
*6 B[1]
*7 B[2]
*8 B[3]
*9 CTRL[0]
*10 CTRL[1]
*11 CTRL[2]
*12 CTRL[3]
*13 Y[0]
*14 Y[1]
*15 Y[2]
*16 Y[3]
*17 Y[4]
*18 Y[5]
*19 Y[6]
*20 Y[7]
*23 _001_
*24 _002_
*25 _003_
*26 _004_
*27 _005_
*28 _006_
*29 _007_
*30 _008_
*31 _009_
*32 _010_
*33 _011_
*34 _012_
*35 _013_
*36 _014_
*37 _015_
*38 _016_
*39 _017_
*40 _018_
*41 _019_
*42 _020_
*43 _021_
*44 _022_
*45 _023_
*46 _024_
*47 _025_
*48 _026_
*49 _027_
*50 _028_
*51 _029_
*52 _030_
*53 _031_
*54 _032_
*55 _033_
*56 _034_
*57 _035_
*58 _036_
*59 _037_
*60 _038_
*61 _039_
*62 _040_
*63 _041_
*64 _042_
*65 _043_
*66 _044_
*67 _045_
*68 _046_
*69 _047_
*70 _048_
*71 _049_
*72 _050_
*73 _051_
*74 _052_
*75 _053_
*76 _054_
*77 _055_
*78 _056_
*79 _057_
*80 _058_
*81 _059_
*82 _060_
*83 _061_
*84 _062_
*85 _063_
*86 _064_
*87 _065_
*88 _066_
*89 _067_
*90 _068_
*91 _069_
*92 _070_
*93 _071_
*94 _072_
*95 _073_
*96 _074_
*97 _075_
*98 _076_
*99 _077_
*100 _078_
*101 _079_
*102 _080_
*103 _081_
*104 _082_
*105 _083_
*106 _084_
*107 _085_
*108 _086_
*109 _087_
*110 _088_
*111 _089_
*112 _090_
*113 _091_
*114 _092_
*115 _093_
*116 _094_
*117 _095_
*118 _096_
*119 _097_
*120 _098_
*121 _099_
*122 _100_
*123 _101_
*124 _102_
*125 _103_
*126 _104_
*127 _105_
*128 _107_
*129 _109_
*130 _112_
*131 _113_
*132 _114_
*133 _115_
*134 _116_
*135 _117_
*136 _118_
*137 _119_
*138 _120_
*139 _121_
*140 _122_
*141 _123_
*142 _124_
*143 _125_
*144 _126_
*145 _127_
*146 _128_
*147 _129_
*148 _130_
*149 _131_
*150 _132_
*151 _133_
*152 _134_
*153 _135_
*154 _136_
*155 _137_
*156 _138_
*157 _139_
*158 _140_
*159 _141_
*160 _142_
*161 _143_
*162 _144_
*163 _145_
*164 _146_
*165 _147_
*166 _148_
*167 _149_
*168 _150_
*169 _151_
*170 _152_
*171 _153_
*172 _154_
*173 _155_
*174 _156_
*175 _157_
*176 _158_
*177 _159_
*178 _160_
*179 _161_
*180 _162_
*181 _163_
*182 _164_
*183 _165_
*184 _166_
*185 _167_
*186 _168_
*187 _169_
*188 _170_
*189 _171_
*190 _172_
*191 _173_
*192 _174_
*193 _175_
*194 _176_
*195 _177_
*196 _178_
*197 _179_
*198 _180_
*199 _181_
*200 _182_
*201 _183_
*202 _184_
*203 _185_
*204 _186_
*205 _187_
*206 _188_
*207 _189_
*208 _190_
*209 _191_
*210 _192_
*211 _193_
*212 _194_
*213 _195_
*214 _196_
*215 _197_
*216 _198_
*217 _199_
*218 net1
*219 net10
*220 net11
*221 net12
*222 net13
*223 net14
*224 net15
*225 net16
*226 net17
*227 net18
*228 net19
*229 net2
*230 net20
*231 net3
*232 net4
*233 net5
*234 net6
*235 net7
*236 net8
*237 net9
*238 FILLER_0_1
*239 FILLER_0_100
*240 FILLER_0_132
*241 FILLER_0_164
*242 FILLER_0_17
*243 FILLER_0_18
*244 FILLER_0_196
*245 FILLER_0_228
*246 FILLER_0_23
*247 FILLER_0_24
*248 FILLER_0_244
*249 FILLER_0_30
*250 FILLER_0_31
*251 FILLER_0_36
*252 FILLER_0_68
*253 FILLER_10_1
*254 FILLER_10_100
*255 FILLER_10_108
*256 FILLER_10_112
*257 FILLER_10_113
*258 FILLER_10_114
*259 FILLER_10_119
*260 FILLER_10_127
*261 FILLER_10_128
*262 FILLER_10_133
*263 FILLER_10_165
*264 FILLER_10_17
*265 FILLER_10_181
*266 FILLER_10_189
*267 FILLER_10_193
*268 FILLER_10_194
*269 FILLER_10_197
*270 FILLER_10_21
*271 FILLER_10_22
*272 FILLER_10_229
*273 FILLER_10_27
*274 FILLER_10_31
*275 FILLER_10_32
*276 FILLER_10_43
*277 FILLER_10_44
*278 FILLER_10_49
*279 FILLER_10_50
*280 FILLER_10_54
*281 FILLER_10_70
*282 FILLER_10_78
*283 FILLER_10_84
*284 FILLER_10_92
*285 FILLER_10_96
*286 FILLER_10_97
*287 FILLER_11_1
*288 FILLER_11_107
*289 FILLER_11_139
*290 FILLER_11_143
*291 FILLER_11_144
*292 FILLER_11_149
*293 FILLER_11_181
*294 FILLER_11_213
*295 FILLER_11_214
*296 FILLER_11_215
*297 FILLER_11_220
*298 FILLER_11_221
*299 FILLER_11_225
*300 FILLER_11_241
*301 FILLER_11_33
*302 FILLER_11_37
*303 FILLER_11_38
*304 FILLER_11_43
*305 FILLER_11_75
*306 FILLER_12_1
*307 FILLER_12_102
*308 FILLER_12_103
*309 FILLER_12_104
*310 FILLER_12_108
*311 FILLER_12_140
*312 FILLER_12_159
*313 FILLER_12_160
*314 FILLER_12_164
*315 FILLER_12_17
*316 FILLER_12_196
*317 FILLER_12_204
*318 FILLER_12_205
*319 FILLER_12_206
*320 FILLER_12_210
*321 FILLER_12_217
*322 FILLER_12_218
*323 FILLER_12_222
*324 FILLER_12_238
*325 FILLER_12_239
*326 FILLER_12_243
*327 FILLER_12_244
*328 FILLER_12_25
*329 FILLER_12_29
*330 FILLER_12_30
*331 FILLER_12_31
*332 FILLER_12_34
*333 FILLER_12_66
*334 FILLER_12_98
*335 FILLER_13_1
*336 FILLER_13_102
*337 FILLER_13_109
*338 FILLER_13_110
*339 FILLER_13_114
*340 FILLER_13_130
*341 FILLER_13_138
*342 FILLER_13_158
*343 FILLER_13_159
*344 FILLER_13_163
*345 FILLER_13_164
*346 FILLER_13_167
*347 FILLER_13_183
*348 FILLER_13_191
*349 FILLER_13_195
*350 FILLER_13_196
*351 FILLER_13_197
*352 FILLER_13_214
*353 FILLER_13_215
*354 FILLER_13_219
*355 FILLER_13_220
*356 FILLER_13_223
*357 FILLER_13_239
*358 FILLER_13_243
*359 FILLER_13_244
*360 FILLER_13_33
*361 FILLER_13_37
*362 FILLER_13_38
*363 FILLER_13_41
*364 FILLER_13_73
*365 FILLER_13_81
*366 FILLER_13_82
*367 FILLER_13_83
*368 FILLER_13_86
*369 FILLER_14_1
*370 FILLER_14_116
*371 FILLER_14_117
*372 FILLER_14_120
*373 FILLER_14_136
*374 FILLER_14_137
*375 FILLER_14_138
*376 FILLER_14_155
*377 FILLER_14_156
*378 FILLER_14_159
*379 FILLER_14_17
*380 FILLER_14_193
*381 FILLER_14_194
*382 FILLER_14_211
*383 FILLER_14_212
*384 FILLER_14_215
*385 FILLER_14_23
*386 FILLER_14_231
*387 FILLER_14_239
*388 FILLER_14_243
*389 FILLER_14_244
*390 FILLER_14_37
*391 FILLER_14_38
*392 FILLER_14_39
*393 FILLER_14_42
*394 FILLER_14_58
*395 FILLER_14_66
*396 FILLER_14_80
*397 FILLER_14_81
*398 FILLER_14_98
*399 FILLER_14_99
*400 FILLER_15_1
*401 FILLER_15_10
*402 FILLER_15_120
*403 FILLER_15_13
*404 FILLER_15_136
*405 FILLER_15_14
*406 FILLER_15_144
*407 FILLER_15_148
*408 FILLER_15_151
*409 FILLER_15_18
*410 FILLER_15_183
*411 FILLER_15_19
*412 FILLER_15_215
*413 FILLER_15_231
*414 FILLER_15_239
*415 FILLER_15_243
*416 FILLER_15_244
*417 FILLER_15_30
*418 FILLER_15_62
*419 FILLER_15_70
*420 FILLER_15_76
*421 FILLER_15_77
*422 FILLER_15_88
*423 FILLER_15_9
*424 FILLER_16_1
*425 FILLER_16_106
*426 FILLER_16_138
*427 FILLER_16_17
*428 FILLER_16_170
*429 FILLER_16_18
*430 FILLER_16_186
*431 FILLER_16_187
*432 FILLER_16_19
*433 FILLER_16_191
*434 FILLER_16_223
*435 FILLER_16_23
*436 FILLER_16_239
*437 FILLER_16_243
*438 FILLER_16_244
*439 FILLER_16_31
*440 FILLER_16_38
*441 FILLER_16_39
*442 FILLER_16_42
*443 FILLER_16_74
*444 FILLER_17_1
*445 FILLER_17_110
*446 FILLER_17_142
*447 FILLER_17_17
*448 FILLER_17_174
*449 FILLER_17_182
*450 FILLER_17_196
*451 FILLER_17_200
*452 FILLER_17_217
*453 FILLER_17_233
*454 FILLER_17_241
*455 FILLER_17_25
*456 FILLER_17_29
*457 FILLER_17_46
*458 FILLER_17_78
*459 FILLER_18_1
*460 FILLER_18_103
*461 FILLER_18_104
*462 FILLER_18_115
*463 FILLER_18_116
*464 FILLER_18_117
*465 FILLER_18_120
*466 FILLER_18_121
*467 FILLER_18_138
*468 FILLER_18_148
*469 FILLER_18_164
*470 FILLER_18_168
*471 FILLER_18_185
*472 FILLER_18_193
*473 FILLER_18_194
*474 FILLER_18_195
*475 FILLER_18_198
*476 FILLER_18_230
*477 FILLER_18_238
*478 FILLER_18_242
*479 FILLER_18_243
*480 FILLER_18_244
*481 FILLER_18_33
*482 FILLER_18_49
*483 FILLER_18_50
*484 FILLER_18_53
*485 FILLER_18_69
*486 FILLER_18_77
*487 FILLER_18_81
*488 FILLER_18_82
*489 FILLER_18_83
*490 FILLER_18_87
*491 FILLER_18_97
*492 FILLER_18_98
*493 FILLER_18_99
*494 FILLER_19_1
*495 FILLER_19_100
*496 FILLER_19_132
*497 FILLER_19_167
*498 FILLER_19_168
*499 FILLER_19_171
*500 FILLER_19_2
*501 FILLER_19_203
*502 FILLER_19_235
*503 FILLER_19_243
*504 FILLER_19_244
*505 FILLER_19_39
*506 FILLER_19_55
*507 FILLER_19_56
*508 FILLER_19_57
*509 FILLER_19_68
*510 FILLER_19_7
*511 FILLER_1_1
*512 FILLER_1_103
*513 FILLER_1_104
*514 FILLER_1_105
*515 FILLER_1_109
*516 FILLER_1_141
*517 FILLER_1_17
*518 FILLER_1_173
*519 FILLER_1_205
*520 FILLER_1_221
*521 FILLER_1_229
*522 FILLER_1_233
*523 FILLER_1_234
*524 FILLER_1_238
*525 FILLER_1_239
*526 FILLER_1_243
*527 FILLER_1_244
*528 FILLER_1_25
*529 FILLER_1_57
*530 FILLER_1_61
*531 FILLER_1_67
*532 FILLER_1_99
*533 FILLER_20_1
*534 FILLER_20_112
*535 FILLER_20_113
*536 FILLER_20_124
*537 FILLER_20_140
*538 FILLER_20_144
*539 FILLER_20_155
*540 FILLER_20_163
*541 FILLER_20_167
*542 FILLER_20_170
*543 FILLER_20_2
*544 FILLER_20_202
*545 FILLER_20_23
*546 FILLER_20_234
*547 FILLER_20_242
*548 FILLER_20_243
*549 FILLER_20_244
*550 FILLER_20_34
*551 FILLER_20_50
*552 FILLER_20_51
*553 FILLER_20_55
*554 FILLER_20_56
*555 FILLER_20_59
*556 FILLER_20_67
*557 FILLER_20_7
*558 FILLER_20_71
*559 FILLER_20_74
*560 FILLER_20_75
*561 FILLER_20_79
*562 FILLER_20_87
*563 FILLER_20_91
*564 FILLER_20_92
*565 FILLER_20_93
*566 FILLER_20_96
*567 FILLER_21_1
*568 FILLER_21_100
*569 FILLER_21_104
*570 FILLER_21_105
*571 FILLER_21_108
*572 FILLER_21_116
*573 FILLER_21_117
*574 FILLER_21_134
*575 FILLER_21_138
*576 FILLER_21_139
*577 FILLER_21_14
*578 FILLER_21_140
*579 FILLER_21_15
*580 FILLER_21_157
*581 FILLER_21_189
*582 FILLER_21_2
*583 FILLER_21_20
*584 FILLER_21_21
*585 FILLER_21_221
*586 FILLER_21_237
*587 FILLER_21_25
*588 FILLER_21_26
*589 FILLER_21_43
*590 FILLER_21_44
*591 FILLER_21_47
*592 FILLER_21_63
*593 FILLER_21_67
*594 FILLER_21_68
*595 FILLER_21_69
*596 FILLER_21_8
*597 FILLER_21_86
*598 FILLER_21_87
*599 FILLER_21_9
*600 FILLER_21_90
*601 FILLER_21_94
*602 FILLER_21_95
*603 FILLER_21_96
*604 FILLER_22_1
*605 FILLER_22_109
*606 FILLER_22_13
*607 FILLER_22_141
*608 FILLER_22_145
*609 FILLER_22_149
*610 FILLER_22_150
*611 FILLER_22_153
*612 FILLER_22_185
*613 FILLER_22_2
*614 FILLER_22_217
*615 FILLER_22_233
*616 FILLER_22_241
*617 FILLER_22_45
*618 FILLER_22_7
*619 FILLER_22_77
*620 FILLER_22_8
*621 FILLER_23_1
*622 FILLER_23_103
*623 FILLER_23_135
*624 FILLER_23_167
*625 FILLER_23_199
*626 FILLER_23_2
*627 FILLER_23_231
*628 FILLER_23_239
*629 FILLER_23_243
*630 FILLER_23_244
*631 FILLER_23_39
*632 FILLER_23_7
*633 FILLER_23_71
*634 FILLER_2_1
*635 FILLER_2_100
*636 FILLER_2_105
*637 FILLER_2_109
*638 FILLER_2_114
*639 FILLER_2_115
*640 FILLER_2_119
*641 FILLER_2_130
*642 FILLER_2_146
*643 FILLER_2_154
*644 FILLER_2_158
*645 FILLER_2_166
*646 FILLER_2_167
*647 FILLER_2_168
*648 FILLER_2_17
*649 FILLER_2_171
*650 FILLER_2_172
*651 FILLER_2_177
*652 FILLER_2_178
*653 FILLER_2_18
*654 FILLER_2_182
*655 FILLER_2_183
*656 FILLER_2_187
*657 FILLER_2_203
*658 FILLER_2_211
*659 FILLER_2_215
*660 FILLER_2_216
*661 FILLER_2_217
*662 FILLER_2_221
*663 FILLER_2_222
*664 FILLER_2_226
*665 FILLER_2_227
*666 FILLER_2_231
*667 FILLER_2_238
*668 FILLER_2_239
*669 FILLER_2_243
*670 FILLER_2_244
*671 FILLER_2_28
*672 FILLER_2_29
*673 FILLER_2_32
*674 FILLER_2_36
*675 FILLER_2_37
*676 FILLER_2_41
*677 FILLER_2_49
*678 FILLER_2_62
*679 FILLER_2_63
*680 FILLER_2_73
*681 FILLER_2_74
*682 FILLER_2_79
*683 FILLER_2_95
*684 FILLER_2_99
*685 FILLER_3_1
*686 FILLER_3_102
*687 FILLER_3_103
*688 FILLER_3_104
*689 FILLER_3_109
*690 FILLER_3_110
*691 FILLER_3_114
*692 FILLER_3_115
*693 FILLER_3_119
*694 FILLER_3_135
*695 FILLER_3_143
*696 FILLER_3_147
*697 FILLER_3_148
*698 FILLER_3_153
*699 FILLER_3_161
*700 FILLER_3_162
*701 FILLER_3_166
*702 FILLER_3_167
*703 FILLER_3_17
*704 FILLER_3_170
*705 FILLER_3_171
*706 FILLER_3_174
*707 FILLER_3_175
*708 FILLER_3_180
*709 FILLER_3_181
*710 FILLER_3_186
*711 FILLER_3_187
*712 FILLER_3_192
*713 FILLER_3_208
*714 FILLER_3_218
*715 FILLER_3_219
*716 FILLER_3_220
*717 FILLER_3_223
*718 FILLER_3_239
*719 FILLER_3_243
*720 FILLER_3_244
*721 FILLER_3_25
*722 FILLER_3_32
*723 FILLER_3_36
*724 FILLER_3_37
*725 FILLER_3_38
*726 FILLER_3_44
*727 FILLER_3_60
*728 FILLER_3_68
*729 FILLER_3_73
*730 FILLER_3_89
*731 FILLER_3_95
*732 FILLER_3_96
*733 FILLER_3_97
*734 FILLER_4_1
*735 FILLER_4_10
*736 FILLER_4_11
*737 FILLER_4_131
*738 FILLER_4_139
*739 FILLER_4_140
*740 FILLER_4_145
*741 FILLER_4_146
*742 FILLER_4_150
*743 FILLER_4_151
*744 FILLER_4_154
*745 FILLER_4_162
*746 FILLER_4_166
*747 FILLER_4_167
*748 FILLER_4_17
*749 FILLER_4_172
*750 FILLER_4_18
*751 FILLER_4_180
*752 FILLER_4_184
*753 FILLER_4_216
*754 FILLER_4_232
*755 FILLER_4_240
*756 FILLER_4_244
*757 FILLER_4_28
*758 FILLER_4_29
*759 FILLER_4_35
*760 FILLER_4_36
*761 FILLER_4_40
*762 FILLER_4_72
*763 FILLER_4_88
*764 FILLER_4_9
*765 FILLER_4_92
*766 FILLER_4_93
*767 FILLER_4_94
*768 FILLER_4_99
*769 FILLER_5_1
*770 FILLER_5_112
*771 FILLER_5_144
*772 FILLER_5_148
*773 FILLER_5_159
*774 FILLER_5_191
*775 FILLER_5_223
*776 FILLER_5_239
*777 FILLER_5_243
*778 FILLER_5_244
*779 FILLER_5_33
*780 FILLER_5_65
*781 FILLER_5_73
*782 FILLER_5_74
*783 FILLER_5_75
*784 FILLER_5_80
*785 FILLER_6_1
*786 FILLER_6_102
*787 FILLER_6_134
*788 FILLER_6_166
*789 FILLER_6_198
*790 FILLER_6_230
*791 FILLER_6_238
*792 FILLER_6_242
*793 FILLER_6_243
*794 FILLER_6_244
*795 FILLER_6_33
*796 FILLER_6_65
*797 FILLER_6_97
*798 FILLER_6_98
*799 FILLER_7_1
*800 FILLER_7_102
*801 FILLER_7_103
*802 FILLER_7_108
*803 FILLER_7_140
*804 FILLER_7_172
*805 FILLER_7_188
*806 FILLER_7_189
*807 FILLER_7_190
*808 FILLER_7_193
*809 FILLER_7_194
*810 FILLER_7_199
*811 FILLER_7_200
*812 FILLER_7_204
*813 FILLER_7_205
*814 FILLER_7_209
*815 FILLER_7_210
*816 FILLER_7_214
*817 FILLER_7_226
*818 FILLER_7_242
*819 FILLER_7_243
*820 FILLER_7_244
*821 FILLER_7_33
*822 FILLER_7_65
*823 FILLER_7_81
*824 FILLER_7_82
*825 FILLER_7_83
*826 FILLER_7_94
*827 FILLER_8_1
*828 FILLER_8_122
*829 FILLER_8_130
*830 FILLER_8_135
*831 FILLER_8_143
*832 FILLER_8_147
*833 FILLER_8_148
*834 FILLER_8_153
*835 FILLER_8_17
*836 FILLER_8_185
*837 FILLER_8_186
*838 FILLER_8_191
*839 FILLER_8_192
*840 FILLER_8_193
*841 FILLER_8_198
*842 FILLER_8_199
*843 FILLER_8_204
*844 FILLER_8_205
*845 FILLER_8_210
*846 FILLER_8_211
*847 FILLER_8_215
*848 FILLER_8_231
*849 FILLER_8_239
*850 FILLER_8_243
*851 FILLER_8_244
*852 FILLER_8_25
*853 FILLER_8_28
*854 FILLER_8_39
*855 FILLER_8_40
*856 FILLER_8_44
*857 FILLER_8_45
*858 FILLER_8_46
*859 FILLER_8_49
*860 FILLER_8_53
*861 FILLER_8_58
*862 FILLER_8_90
*863 FILLER_9_1
*864 FILLER_9_100
*865 FILLER_9_103
*866 FILLER_9_119
*867 FILLER_9_123
*868 FILLER_9_124
*869 FILLER_9_125
*870 FILLER_9_130
*871 FILLER_9_146
*872 FILLER_9_147
*873 FILLER_9_151
*874 FILLER_9_159
*875 FILLER_9_162
*876 FILLER_9_17
*877 FILLER_9_178
*878 FILLER_9_182
*879 FILLER_9_183
*880 FILLER_9_188
*881 FILLER_9_189
*882 FILLER_9_200
*883 FILLER_9_201
*884 FILLER_9_205
*885 FILLER_9_221
*886 FILLER_9_222
*887 FILLER_9_225
*888 FILLER_9_233
*889 FILLER_9_237
*890 FILLER_9_238
*891 FILLER_9_239
*892 FILLER_9_24
*893 FILLER_9_243
*894 FILLER_9_244
*895 FILLER_9_25
*896 FILLER_9_30
*897 FILLER_9_34
*898 FILLER_9_39
*899 FILLER_9_40
*900 FILLER_9_41
*901 FILLER_9_46
*902 FILLER_9_50
*903 FILLER_9_55
*904 FILLER_9_56
*905 FILLER_9_60
*906 FILLER_9_61
*907 FILLER_9_65
*908 FILLER_9_81
*909 FILLER_9_85
*910 FILLER_9_86
*911 FILLER_9_91
*912 FILLER_9_99
*913 PHY_0
*914 PHY_1
*915 PHY_10
*916 PHY_11
*917 PHY_12
*918 PHY_13
*919 PHY_14
*920 PHY_15
*921 PHY_16
*922 PHY_17
*923 PHY_18
*924 PHY_19
*925 PHY_2
*926 PHY_20
*927 PHY_21
*928 PHY_22
*929 PHY_23
*930 PHY_24
*931 PHY_25
*932 PHY_26
*933 PHY_27
*934 PHY_28
*935 PHY_29
*936 PHY_3
*937 PHY_30
*938 PHY_31
*939 PHY_32
*940 PHY_33
*941 PHY_34
*942 PHY_35
*943 PHY_36
*944 PHY_37
*945 PHY_38
*946 PHY_39
*947 PHY_4
*948 PHY_40
*949 PHY_41
*950 PHY_42
*951 PHY_43
*952 PHY_44
*953 PHY_45
*954 PHY_46
*955 PHY_47
*956 PHY_5
*957 PHY_6
*958 PHY_7
*959 PHY_8
*960 PHY_9
*961 _201_
*962 _203_
*963 _206_
*964 _208_
*965 _209_
*966 _210_
*967 _211_
*968 _212_
*969 _213_
*970 _214_
*971 _215_
*972 _216_
*973 _217_
*974 _218_
*975 _219_
*976 _220_
*977 _221_
*978 _222_
*979 _223_
*980 _224_
*981 _225_
*982 _226_
*983 _227_
*984 _228_
*985 _229_
*986 _230_
*987 _231_
*988 _232_
*989 _233_
*990 _234_
*991 _235_
*992 _236_
*993 _237_
*994 _238_
*995 _239_
*996 _240_
*997 _241_
*998 _242_
*999 _243_
*1000 _244_
*1001 _245_
*1002 _246_
*1003 _247_
*1004 _248_
*1005 _249_
*1006 _250_
*1007 _251_
*1008 _252_
*1009 _253_
*1010 _254_
*1011 _255_
*1012 _256_
*1013 _257_
*1014 _258_
*1015 _259_
*1016 _260_
*1017 _261_
*1018 _262_
*1019 _263_
*1020 _264_
*1021 _265_
*1022 _266_
*1023 _267_
*1024 _268_
*1025 _269_
*1026 _270_
*1027 _271_
*1028 _272_
*1029 _273_
*1030 _274_
*1031 _275_
*1032 _276_
*1033 _277_
*1034 _278_
*1035 _279_
*1036 _280_
*1037 _281_
*1038 _282_
*1039 _283_
*1040 _284_
*1041 _285_
*1042 _286_
*1043 _287_
*1044 _288_
*1045 _289_
*1046 _290_
*1047 _291_
*1048 _292_
*1049 _293_
*1050 _294_
*1051 _295_
*1052 _296_
*1053 _297_
*1054 _298_
*1055 _299_
*1056 _300_
*1057 _301_
*1058 _302_
*1059 _303_
*1060 _304_
*1061 _305_
*1062 _306_
*1063 _307_
*1064 _308_
*1065 _309_
*1066 _310_
*1067 _311_
*1068 _312_
*1069 _313_
*1070 _314_
*1071 _315_
*1072 _316_
*1073 _317_
*1074 _318_
*1075 _319_
*1076 _320_
*1077 _321_
*1078 _322_
*1079 _323_
*1080 _324_
*1081 _325_
*1082 _326_
*1083 _327_
*1084 _328_
*1085 _329_
*1086 _330_
*1087 _331_
*1088 _332_
*1089 _333_
*1090 _334_
*1091 _335_
*1092 _336_
*1093 _337_
*1094 _338_
*1095 _339_
*1096 _340_
*1097 _341_
*1098 _342_
*1099 _343_
*1100 _344_
*1101 _345_
*1102 _346_
*1103 _347_
*1104 _348_
*1105 _349_
*1106 _350_
*1107 _351_
*1108 _352_
*1109 _353_
*1110 _354_
*1111 _355_
*1112 _356_
*1113 _357_
*1114 _358_
*1115 _359_
*1116 _360_
*1117 _361_
*1118 _362_
*1119 _363_
*1120 _364_
*1121 _365_
*1122 _366_
*1123 _367_
*1124 _368_
*1125 _369_
*1126 _370_
*1127 _371_
*1128 _372_
*1129 _373_
*1130 _374_
*1131 _375_
*1132 _376_
*1133 _377_
*1134 _378_
*1135 _379_
*1136 _380_
*1137 input1
*1138 input10
*1139 input11
*1140 input12
*1141 input2
*1142 input3
*1143 input4
*1144 input5
*1145 input6
*1146 input7
*1147 input8
*1148 input9
*1149 output13
*1150 output14
*1151 output15
*1152 output16
*1153 output17
*1154 output18
*1155 output19
*1156 output20

*PORTS
A[0] I
A[1] I
A[2] I
A[3] I
B[0] I
B[1] I
B[2] I
B[3] I
CTRL[0] I
CTRL[1] I
CTRL[2] I
CTRL[3] I
Y[0] O
Y[1] O
Y[2] O
Y[3] O
Y[4] O
Y[5] O
Y[6] O
Y[7] O

*D_NET *1 0.000367007
*CONN
*P A[0] I
*I *1137:A I *D CLKBUF_X2
*CAP
1 A[0] 0.000145335
2 *1137:A 0.000145335
3 *1137:A *1141:A 4.43929e-05
4 *1137:A *1142:A 2.3767e-06
5 *1137:A *1144:A 3.30475e-06
6 *1137:A *218:10 3.83909e-06
7 *1137:A *229:8 2.1707e-05
8 *1137:A *234:8 7.16188e-07
*RES
1 A[0] *1137:A 27.4464 
*END

*D_NET *2 0.000276105
*CONN
*P A[1] I
*I *1141:A I *D CLKBUF_X3
*CAP
1 A[1] 7.84841e-05
2 *1141:A 7.84841e-05
3 *1141:A *1142:A 5.57892e-05
4 *1141:A *1143:A 1.32348e-05
5 *1141:A *229:8 3.82997e-06
6 *1141:A *231:8 1.89033e-06
7 *1137:A *1141:A 4.43929e-05
*RES
1 A[1] *1141:A 21.6964 
*END

*D_NET *3 0.000234824
*CONN
*P A[2] I
*I *1142:A I *D BUF_X2
*CAP
1 A[2] 6.10705e-05
2 *1142:A 6.10705e-05
3 *1142:A *1144:A 4.78476e-05
4 *1142:A *229:8 4.73284e-06
5 *1142:A *231:8 1.93661e-06
6 *1137:A *1142:A 2.3767e-06
7 *1141:A *1142:A 5.57892e-05
*RES
1 A[2] *1142:A 19.9464 
*END

*D_NET *4 0.000281309
*CONN
*P A[3] I
*I *1143:A I *D BUF_X2
*CAP
1 A[3] 0.000101523
2 *1143:A 0.000101523
3 *1143:A *1144:A 3.9281e-05
4 *1143:A *1145:A 2.25458e-05
5 *1143:A *229:8 0
6 *1143:A *232:18 3.20076e-06
7 *1141:A *1143:A 1.32348e-05
*RES
1 A[3] *1143:A 23.1964 
*END

*D_NET *5 0.000499235
*CONN
*P B[0] I
*I *1144:A I *D BUF_X2
*CAP
1 B[0] 0.000131878
2 *1144:A 0.000131878
3 *1144:A *1047:A2 0
4 *1144:A *1145:A 2.43205e-06
5 *1144:A *231:8 0.000139784
6 *1144:A *233:8 2.83077e-06
7 *1137:A *1144:A 3.30475e-06
8 *1142:A *1144:A 4.78476e-05
9 *1143:A *1144:A 3.9281e-05
*RES
1 B[0] *1144:A 28.2679 
*END

*D_NET *6 0.000339346
*CONN
*P B[1] I
*I *1145:A I *D BUF_X2
*CAP
1 B[1] 0.00012453
2 *1145:A 0.00012453
3 *1145:A *1146:A 0
4 *1145:A *232:18 5.67353e-05
5 *1145:A *234:8 8.57214e-06
6 *1143:A *1145:A 2.25458e-05
7 *1144:A *1145:A 2.43205e-06
*RES
1 B[1] *1145:A 25.0179 
*END

*D_NET *7 0.000290072
*CONN
*P B[2] I
*I *1146:A I *D CLKBUF_X2
*CAP
1 B[2] 0.000145036
2 *1146:A 0.000145036
3 *1145:A *1146:A 0
*RES
1 B[2] *1146:A 25.4464 
*END

*D_NET *8 0.000200159
*CONN
*P B[3] I
*I *1147:A I *D BUF_X2
*CAP
1 B[3] 9.54765e-05
2 *1147:A 9.54765e-05
3 *1147:A *229:8 5.7295e-06
4 *1147:A *236:7 3.47638e-06
*RES
1 B[3] *1147:A 20.4464 
*END

*D_NET *9 0.000276371
*CONN
*P CTRL[0] I
*I *1148:A I *D BUF_X2
*CAP
1 CTRL[0] 0.000122019
2 *1148:A 0.000122019
3 *1148:A *1140:A 3.23328e-05
4 *1148:A *220:9 0
*RES
1 CTRL[0] *1148:A 18.5536 
*END

*D_NET *10 0.000245607
*CONN
*P CTRL[1] I
*I *1138:A I *D BUF_X2
*CAP
1 CTRL[1] 0.000113975
2 *1138:A 0.000113975
3 *1138:A *1139:A 1.76572e-05
4 *1138:A *220:9 0
*RES
1 CTRL[1] *1138:A 28.9436 
*END

*D_NET *11 0.000168529
*CONN
*P CTRL[2] I
*I *1139:A I *D CLKBUF_X3
*CAP
1 CTRL[2] 5.89112e-05
2 *1139:A 5.89112e-05
3 *1139:A *1140:A 3.23328e-05
4 *1139:A *220:9 7.16188e-07
5 *1138:A *1139:A 1.76572e-05
*RES
1 CTRL[2] *1139:A 13.0536 
*END

*D_NET *12 0.000205942
*CONN
*P CTRL[3] I
*I *1140:A I *D BUF_X2
*CAP
1 CTRL[3] 6.88941e-05
2 *1140:A 6.88941e-05
3 *1140:A *221:9 3.48838e-06
4 *1139:A *1140:A 3.23328e-05
5 *1148:A *1140:A 3.23328e-05
*RES
1 CTRL[3] *1140:A 24.4107 
*END

*D_NET *13 0.000186437
*CONN
*P Y[0] O
*I *1149:Z O *D BUF_X1
*CAP
1 Y[0] 6.39565e-05
2 *1149:Z 6.39565e-05
3 Y[0] Y[2] 4.72852e-05
4 Y[0] Y[6] 1.12338e-05
5 Y[0] Y[7] 4.55949e-09
*RES
1 *1149:Z Y[0] 18.375 
*END

*D_NET *14 0.000124355
*CONN
*P Y[1] O
*I *1150:Z O *D BUF_X1
*CAP
1 Y[1] 6.21776e-05
2 *1150:Z 6.21776e-05
3 Y[1] Y[3] 0
*RES
1 *1150:Z Y[1] 17.125 
*END

*D_NET *15 0.000325154
*CONN
*P Y[2] O
*I *1151:Z O *D BUF_X1
*CAP
1 Y[2] 5.25419e-05
2 *1151:Z 5.25419e-05
3 Y[2] Y[7] 0.000168007
4 Y[2] *1155:A 2.54095e-06
5 Y[2] *222:18 2.23733e-06
6 Y[0] Y[2] 4.72852e-05
*RES
1 *1151:Z Y[2] 20.5179 
*END

*D_NET *16 0.000124355
*CONN
*P Y[3] O
*I *1152:Z O *D BUF_X1
*CAP
1 Y[3] 6.21776e-05
2 *1152:Z 6.21776e-05
3 Y[1] Y[3] 0
*RES
1 *1152:Z Y[3] 17.125 
*END

*D_NET *17 0.000141808
*CONN
*P Y[4] O
*I *1153:Z O *D BUF_X1
*CAP
1 Y[4] 7.09042e-05
2 *1153:Z 7.09042e-05
*RES
1 *1153:Z Y[4] 18.125 
*END

*D_NET *18 0.000163313
*CONN
*P Y[5] O
*I *1154:Z O *D BUF_X1
*CAP
1 Y[5] 7.85003e-05
2 *1154:Z 7.85003e-05
3 Y[5] Y[6] 6.31193e-06
*RES
1 *1154:Z Y[5] 19.125 
*END

*D_NET *19 0.000244146
*CONN
*P Y[6] O
*I *1155:Z O *D BUF_X1
*CAP
1 Y[6] 9.94674e-05
2 *1155:Z 9.94674e-05
3 Y[6] Y[7] 2.76653e-05
4 Y[6] *224:11 0
5 Y[0] Y[6] 1.12338e-05
6 Y[5] Y[6] 6.31193e-06
*RES
1 *1155:Z Y[6] 21.625 
*END

*D_NET *20 0.000380317
*CONN
*P Y[7] O
*I *1156:Z O *D BUF_X1
*CAP
1 Y[7] 8.55583e-05
2 *1156:Z 8.55583e-05
3 Y[7] *1155:A 0
4 Y[7] *222:18 1.10113e-05
5 Y[7] *224:11 2.51177e-06
6 Y[0] Y[7] 4.55949e-09
7 Y[2] Y[7] 0.000168007
8 Y[6] Y[7] 2.76653e-05
*RES
1 *1156:Z Y[7] 24.0179 
*END

*D_NET *23 0.00530882
*CONN
*I *1009:A1 I *D NAND3_X1
*I *995:A2 I *D NAND3_X1
*I *1048:A2 I *D NAND3_X1
*I *1061:A1 I *D NAND3_X1
*I *1032:A1 I *D NAND3_X1
*I *1019:A2 I *D NAND3_X1
*I *988:A1 I *D NAND2_X1
*I *965:A2 I *D NAND3_X1
*I *964:ZN O *D NOR2_X2
*CAP
1 *1009:A1 2.9592e-05
2 *995:A2 1.73326e-05
3 *1048:A2 5.85002e-05
4 *1061:A1 0
5 *1032:A1 6.30324e-06
6 *1019:A2 3.28115e-05
7 *988:A1 2.54254e-05
8 *965:A2 7.17197e-06
9 *964:ZN 0.000223362
10 *23:93 0.000164346
11 *23:75 0.000307554
12 *23:55 0.000453073
13 *23:40 0.000431587
14 *23:27 0.000545309
15 *23:12 0.000576503
16 *23:9 0.00059129
17 *965:A2 *965:A1 7.19036e-06
18 *988:A1 *989:B1 0
19 *988:A1 *991:A1 7.66675e-07
20 *988:A1 *129:31 2.05208e-05
21 *995:A2 *995:A1 2.39679e-06
22 *995:A2 *995:A3 2.39679e-06
23 *995:A2 *996:A2 6.44483e-06
24 *995:A2 *1002:A2 2.24822e-06
25 *995:A2 *1003:A1 1.03226e-07
26 *995:A2 *31:12 1.84691e-05
27 *1009:A1 *996:A2 0.000115572
28 *1009:A1 *1003:A1 1.41649e-05
29 *1009:A1 *1009:A2 6.32461e-06
30 *1009:A1 *31:12 1.60037e-05
31 *1009:A1 *31:16 8.65525e-06
32 *1019:A2 *1019:A1 1.19839e-05
33 *1019:A2 *1019:A3 2.25242e-05
34 *1019:A2 *1021:A2 2.4613e-06
35 *1019:A2 *1026:A1 2.80478e-06
36 *1019:A2 *1026:A2 6.82202e-07
37 *1019:A2 *129:42 5.02779e-05
38 *1032:A1 *1032:A3 3.09411e-06
39 *1048:A2 *1050:A1 7.29164e-07
40 *1048:A2 *1050:A2 3.19164e-06
41 *1048:A2 *1062:A 2.85602e-05
42 *1048:A2 *1063:A2 0
43 *1048:A2 *213:9 2.39679e-06
44 *23:9 *985:A1 4.38101e-05
45 *23:9 *36:8 6.96581e-05
46 *23:9 *37:9 4.01197e-05
47 *23:12 *970:B1 9.47797e-06
48 *23:12 *985:A3 0.000198378
49 *23:12 *1008:A3 0
50 *23:12 *1124:A 0.000185383
51 *23:12 *189:6 6.97608e-05
52 *23:12 *190:18 0.000146397
53 *23:12 *206:12 0
54 *23:27 *970:B1 5.18056e-06
55 *23:27 *32:12 9.06094e-05
56 *23:27 *37:50 0.00012635
57 *23:40 *1030:A2 5.77e-06
58 *23:40 *37:50 5.86811e-05
59 *23:40 *37:61 2.308e-05
60 *23:40 *156:16 2.88725e-05
61 *23:55 *45:23 1.9697e-05
62 *23:55 *156:16 0.000217845
63 *23:75 *1050:A2 6.38328e-07
64 *23:75 *1061:A2 7.19036e-06
65 *23:75 *1061:A3 1.5956e-05
66 *23:75 *1063:A2 1.72426e-05
67 *23:75 *1063:A3 6.97025e-06
68 *23:75 *45:23 1.92334e-06
69 *23:75 *172:9 5.55675e-05
70 *23:75 *175:11 1.41239e-05
71 *23:93 *37:9 3.00085e-05
72 *23:93 *206:11 0
*RES
1 *964:ZN *23:9 26.6943 
2 *23:9 *23:12 42.5 
3 *23:12 *965:A2 10.75 
4 *23:12 *23:27 22.86 
5 *23:27 *988:A1 19.5271 
6 *23:27 *23:40 10.29 
7 *23:40 *1019:A2 22.5357 
8 *23:40 *23:55 10.29 
9 *23:55 *1032:A1 18.75 
10 *23:55 *23:75 25.99 
11 *23:75 *1061:A1 5 
12 *23:75 *1048:A2 11.6071 
13 *23:9 *23:93 9.62 
14 *23:93 *995:A2 12.5 
15 *23:93 *1009:A1 16.2857 
*END

*D_NET *24 0.00013709
*CONN
*I *970:A I *D OAI21_X1
*I *965:ZN O *D NAND3_X1
*CAP
1 *970:A 3.51927e-05
2 *965:ZN 3.51927e-05
3 *970:A *970:B1 6.67041e-05
4 *970:A *206:12 0
*RES
1 *965:ZN *970:A 24.3214 
*END

*D_NET *25 0.000272016
*CONN
*I *967:A I *D INV_X2
*I *966:ZN O *D NAND2_X1
*CAP
1 *967:A 6.53775e-05
2 *966:ZN 6.53775e-05
3 *967:A *964:A2 0
4 *967:A *978:A2 7.56366e-06
5 *967:A *36:8 3.50308e-05
6 *967:A *219:18 4.32319e-05
7 *967:A *219:20 5.54348e-05
*RES
1 *966:ZN *967:A 29.25 
*END

*D_NET *26 0.004771
*CONN
*I *1063:A1 I *D NAND3_X1
*I *1049:A2 I *D NAND3_X1
*I *1034:A1 I *D NAND3_X1
*I *1020:A2 I *D NAND3_X1
*I *969:A1 I *D NAND2_X1
*I *975:A2 I *D NAND3_X1
*I *996:A2 I *D NAND3_X1
*I *1008:A1 I *D NAND3_X1
*I *967:ZN O *D INV_X2
*CAP
1 *1063:A1 0.000114682
2 *1049:A2 6.50469e-06
3 *1034:A1 5.02887e-05
4 *1020:A2 5.06763e-05
5 *969:A1 9.4265e-05
6 *975:A2 4.08115e-06
7 *996:A2 0.000145336
8 *1008:A1 0
9 *967:ZN 9.74018e-05
10 *26:80 0.000369431
11 *26:70 0.000466012
12 *26:59 0.000473703
13 *26:50 0.000392667
14 *26:41 0.000278933
15 *26:13 0.000297239
16 *26:10 0.000481303
17 *969:A1 *965:A1 6.3924e-06
18 *969:A1 *969:A2 3.09411e-06
19 *969:A1 *982:A1 0
20 *969:A1 *129:18 8.94571e-06
21 *975:A2 *129:18 4.97191e-06
22 *975:A2 *129:23 2.75346e-06
23 *975:A2 *190:18 7.72537e-06
24 *996:A2 *996:A1 1.3143e-06
25 *996:A2 *1002:A2 6.69356e-05
26 *996:A2 *1003:A1 0
27 *996:A2 *1007:A 4.88414e-05
28 *996:A2 *1009:A2 4.63475e-05
29 *996:A2 *1010:A1 1.83058e-06
30 *996:A2 *31:12 3.28481e-05
31 *996:A2 *31:16 2.30706e-05
32 *996:A2 *129:134 3.03873e-05
33 *1020:A2 *1020:A3 2.32773e-05
34 *1020:A2 *1024:A1 0
35 *1020:A2 *208:7 1.87369e-06
36 *1034:A1 *1028:A1 3.19164e-07
37 *1034:A1 *1028:A3 9.57492e-07
38 *1034:A1 *1030:A1 0
39 *1034:A1 *1031:A2 7.04443e-07
40 *1034:A1 *1034:A2 2.14586e-05
41 *1034:A1 *1035:A2 6.07431e-06
42 *1049:A2 *1049:A3 7.19036e-06
43 *1049:A2 *129:80 2.39679e-06
44 *1063:A1 *1055:A1 0
45 *1063:A1 *1057:A1 3.2448e-06
46 *1063:A1 *1057:A2 6.79262e-05
47 *1063:A1 *1059:A1 1.2203e-05
48 *1063:A1 *1060:A2 0
49 *1063:A1 *1063:A2 1.30051e-05
50 *1063:A1 *1063:A3 0
51 *1063:A1 *1065:A1 0
52 *1063:A1 *1134:B 0
53 *1063:A1 *101:16 8.34941e-06
54 *1063:A1 *129:92 9.28138e-05
55 *1063:A1 *213:9 3.40512e-06
56 *26:10 *964:A2 6.92191e-05
57 *26:10 *36:8 2.3036e-05
58 *26:10 *37:33 3.19049e-05
59 *26:13 *1009:A2 2.75346e-06
60 *26:13 *27:5 9.6739e-05
61 *26:13 *27:100 0.000113795
62 *26:13 *129:5 0
63 *26:13 *129:134 0
64 *26:41 *36:8 0
65 *26:41 *37:33 6.13307e-05
66 *26:41 *129:17 0
67 *26:50 *36:8 0
68 *26:59 *974:A1 4.89613e-05
69 *26:59 *1024:A2 1.27467e-05
70 *26:59 *1024:A3 3.7533e-05
71 *26:59 *1025:A1 7.57858e-06
72 *26:59 *27:37 7.29295e-05
73 *26:59 *31:51 8.13181e-06
74 *26:59 *36:17 0
75 *26:70 *1024:A3 1.40462e-05
76 *26:70 *1030:A2 3.5981e-05
77 *26:70 *1030:A3 0
78 *26:70 *1031:A2 1.25407e-05
79 *26:70 *27:37 2.61054e-05
80 *26:70 *27:46 7.11905e-07
81 *26:70 *207:13 1.29437e-05
82 *26:80 *1028:A1 3.80033e-05
83 *26:80 *1030:A3 0
84 *26:80 *1052:A 0
85 *26:80 *1057:A1 1.9777e-05
86 *26:80 *1059:A1 2.74386e-05
87 *26:80 *1060:A2 0
88 *26:80 *31:85 1.59582e-06
89 *995:A2 *996:A2 6.44483e-06
90 *1009:A1 *996:A2 0.000115572
*RES
1 *967:ZN *26:10 23.9643 
2 *26:10 *26:13 24.75 
3 *26:13 *1008:A1 5 
4 *26:13 *996:A2 38.9286 
5 *26:10 *26:41 27.3929 
6 *26:41 *975:A2 10.75 
7 *26:41 *26:50 3.64286 
8 *26:50 *969:A1 19.75 
9 *26:50 *26:59 33.5 
10 *26:59 *1020:A2 15.25 
11 *26:59 *26:70 24.25 
12 *26:70 *1034:A1 10.25 
13 *26:70 *26:80 32.2857 
14 *26:80 *1049:A2 10.75 
15 *26:80 *1063:A1 24.5714 
*END

*D_NET *27 0.00531265
*CONN
*I *1009:A2 I *D NAND3_X1
*I *1008:A2 I *D NAND3_X1
*I *1012:A2 I *D AND2_X1
*I *1014:A1 I *D AND2_X1
*I *1061:A2 I *D NAND3_X1
*I *1063:A2 I *D NAND3_X1
*I *1032:A2 I *D NAND3_X1
*I *1034:A2 I *D NAND3_X1
*I *988:A2 I *D NAND2_X1
*I *969:A2 I *D NAND2_X1
*I *968:ZN O *D NOR2_X4
*CAP
1 *1009:A2 6.36059e-05
2 *1008:A2 0
3 *1012:A2 0
4 *1014:A1 5.98081e-05
5 *1061:A2 8.80569e-06
6 *1063:A2 0.00011321
7 *1032:A2 2.88272e-05
8 *1034:A2 1.94434e-05
9 *988:A2 3.86435e-05
10 *969:A2 5.56901e-06
11 *968:ZN 0.000176537
12 *27:100 0.000144548
13 *27:86 0.000253854
14 *27:62 0.000354256
15 *27:46 0.000315164
16 *27:37 0.000342082
17 *27:20 0.000417858
18 *27:19 0.000412493
19 *27:8 0.000403603
20 *27:5 0.000547739
21 *969:A2 *965:A1 3.09411e-06
22 *988:A2 *982:A1 6.6314e-06
23 *1009:A2 *1007:A 0
24 *1009:A2 *1009:A3 8.43215e-07
25 *1009:A2 *1010:A1 3.19164e-07
26 *1009:A2 *31:16 1.65458e-05
27 *1014:A1 *1012:A1 1.66988e-05
28 *1014:A1 *31:34 0.000145856
29 *1014:A1 *31:43 6.81033e-07
30 *1032:A2 *1032:A3 1.84398e-05
31 *1032:A2 *1036:A2 7.73893e-06