*SPEF "ieee 1481-1999"
*DESIGN "alu_4"
*DATE "11:11:11 Fri 11 11, 1111"
*VENDOR "OpenRCX"
*PROGRAM "Parallel Extraction"
*VERSION "1.0"
*DESIGN_FLOW "NAME_SCOPE LOCAL" "PIN_CAP NONE"
*DIVIDER /
*DELIMITER :
*BUS_DELIMITER []
*T_UNIT 1 NS
*C_UNIT 1 PF
*R_UNIT 1 OHM
*L_UNIT 1 HENRY

*NAME_MAP
*1 A[0]
*2 A[1]
*3 A[2]
*4 A[3]
*5 B[0]
*6 B[1]
*7 B[2]
*8 B[3]
*9 CTRL[0]
*10 CTRL[1]
*11 CTRL[2]
*12 CTRL[3]
*13 Y[0]
*14 Y[1]
*15 Y[2]
*16 Y[3]
*17 Y[4]
*18 Y[5]
*19 Y[6]
*20 Y[7]
*23 _000_
*24 _001_
*25 _002_
*26 _003_
*27 _004_
*28 _005_
*29 _006_
*30 _007_
*31 _008_
*32 _009_
*33 _010_
*34 _011_
*35 _012_
*36 _013_
*37 _014_
*38 _015_
*39 _016_
*40 _017_
*41 _018_
*42 _019_
*43 _020_
*44 _021_
*45 _022_
*46 _023_
*47 _024_
*48 _025_
*49 _026_
*50 _027_
*51 _028_
*52 _029_
*53 _030_
*54 _031_
*55 _032_
*56 _033_
*57 _034_
*58 _035_
*59 _036_
*60 _037_
*61 _038_
*62 _039_
*63 _040_
*64 _041_
*65 _042_
*66 _043_
*67 _044_
*68 _045_
*69 _046_
*70 _047_
*71 _048_
*72 _049_
*73 _050_
*74 _051_
*75 _052_
*76 _053_
*77 _054_
*78 _055_
*79 _056_
*80 _057_
*81 _058_
*82 _059_
*83 _060_
*84 _061_
*85 _062_
*86 _063_
*87 _064_
*88 _065_
*89 _066_
*90 _067_
*91 _068_
*92 _069_
*93 _070_
*94 _071_
*95 _072_
*96 _073_
*97 _074_
*98 _075_
*99 _076_
*100 _077_
*101 _078_
*102 _079_
*103 _080_
*104 _081_
*105 _082_
*106 _083_
*107 _084_
*108 _085_
*109 _086_
*110 _087_
*111 _088_
*112 _089_
*113 _090_
*114 _091_
*115 _092_
*116 _093_
*117 _094_
*118 _095_
*119 _096_
*120 _097_
*121 _098_
*122 _099_
*123 _100_
*124 _101_
*125 _102_
*126 _103_
*127 _104_
*128 _105_
*129 _106_
*130 _107_
*131 _108_
*132 _109_
*133 _110_
*134 _111_
*135 _112_
*136 _113_
*137 _114_
*138 _115_
*139 _116_
*140 _117_
*141 _118_
*142 _119_
*143 _120_
*144 _121_
*145 _122_
*146 _123_
*147 _124_
*148 _125_
*149 _126_
*150 _127_
*151 _128_
*152 _130_
*153 _132_
*154 _133_
*155 _134_
*156 _135_
*157 _136_
*158 _137_
*159 _138_
*160 _139_
*161 _140_
*162 _141_
*163 _142_
*164 _143_
*165 _144_
*166 _145_
*167 _146_
*168 _147_
*169 _148_
*170 _149_
*171 _150_
*172 _151_
*173 _152_
*174 _153_
*175 _154_
*176 _155_
*177 _156_
*178 _157_
*179 _158_
*180 _159_
*181 _160_
*182 _161_
*183 _162_
*184 _163_
*185 _164_
*186 _165_
*187 _166_
*188 _167_
*189 _168_
*190 _169_
*191 _170_
*192 _171_
*193 _172_
*194 _173_
*195 _174_
*196 _175_
*197 _176_
*198 _177_
*199 _178_
*200 _179_
*201 _180_
*202 _181_
*203 _182_
*204 _183_
*205 _184_
*206 _185_
*207 _186_
*208 _187_
*209 _188_
*210 _189_
*211 _190_
*212 _191_
*213 _192_
*214 _193_
*215 _194_
*216 _195_
*217 _196_
*218 _197_
*219 _198_
*220 _199_
*221 _200_
*222 _201_
*223 _202_
*224 _203_
*225 _204_
*226 _205_
*227 _206_
*228 _207_
*229 _208_
*230 _209_
*231 _210_
*232 _211_
*233 _212_
*234 _213_
*235 _214_
*236 _215_
*237 _216_
*238 _217_
*239 _218_
*240 _219_
*241 _220_
*242 _221_
*243 _222_
*244 _223_
*245 net1
*246 net10
*247 net11
*248 net12
*249 net13
*250 net14
*251 net15
*252 net16
*253 net17
*254 net18
*255 net19
*256 net2
*257 net20
*258 net3
*259 net4
*260 net5
*261 net6
*262 net7
*263 net8
*264 net9
*265 FILLER_0_1
*266 FILLER_0_127
*267 FILLER_0_159
*268 FILLER_0_17
*269 FILLER_0_191
*270 FILLER_0_223
*271 FILLER_0_239
*272 FILLER_0_243
*273 FILLER_0_244
*274 FILLER_0_29
*275 FILLER_0_30
*276 FILLER_0_34
*277 FILLER_0_50
*278 FILLER_0_51
*279 FILLER_0_52
*280 FILLER_0_57
*281 FILLER_0_58
*282 FILLER_0_63
*283 FILLER_0_95
*284 FILLER_10_1
*285 FILLER_10_111
*286 FILLER_10_118
*287 FILLER_10_122
*288 FILLER_10_125
*289 FILLER_10_157
*290 FILLER_10_17
*291 FILLER_10_189
*292 FILLER_10_221
*293 FILLER_10_237
*294 FILLER_10_25
*295 FILLER_10_29
*296 FILLER_10_30
*297 FILLER_10_41
*298 FILLER_10_49
*299 FILLER_10_53
*300 FILLER_10_54
*301 FILLER_10_58
*302 FILLER_10_66
*303 FILLER_10_72
*304 FILLER_10_73
*305 FILLER_10_78
*306 FILLER_10_85
*307 FILLER_10_89
*308 FILLER_10_90
*309 FILLER_10_95
*310 FILLER_11_1
*311 FILLER_11_102
*312 FILLER_11_106
*313 FILLER_11_122
*314 FILLER_11_130
*315 FILLER_11_137
*316 FILLER_11_169
*317 FILLER_11_177
*318 FILLER_11_181
*319 FILLER_11_182
*320 FILLER_11_186
*321 FILLER_11_187
*322 FILLER_11_191
*323 FILLER_11_199
*324 FILLER_11_200
*325 FILLER_11_217
*326 FILLER_11_218
*327 FILLER_11_222
*328 FILLER_11_223
*329 FILLER_11_227
*330 FILLER_11_235
*331 FILLER_11_239
*332 FILLER_11_243
*333 FILLER_11_244
*334 FILLER_11_33
*335 FILLER_11_65
*336 FILLER_11_69
*337 FILLER_11_70
*338 FILLER_11_74
*339 FILLER_11_90
*340 FILLER_11_98
*341 FILLER_12_1
*342 FILLER_12_115
*343 FILLER_12_131
*344 FILLER_12_135
*345 FILLER_12_139
*346 FILLER_12_140
*347 FILLER_12_144
*348 FILLER_12_160
*349 FILLER_12_17
*350 FILLER_12_184
*351 FILLER_12_200
*352 FILLER_12_208
*353 FILLER_12_209
*354 FILLER_12_214
*355 FILLER_12_215
*356 FILLER_12_220
*357 FILLER_12_23
*358 FILLER_12_236
*359 FILLER_12_244
*360 FILLER_12_29
*361 FILLER_12_45
*362 FILLER_12_53
*363 FILLER_12_60
*364 FILLER_12_76
*365 FILLER_12_77
*366 FILLER_12_78
*367 FILLER_12_83
*368 FILLER_13_1
*369 FILLER_13_103
*370 FILLER_13_135
*371 FILLER_13_143
*372 FILLER_13_147
*373 FILLER_13_148
*374 FILLER_13_153
*375 FILLER_13_169
*376 FILLER_13_17
*377 FILLER_13_173
*378 FILLER_13_177
*379 FILLER_13_209
*380 FILLER_13_217
*381 FILLER_13_218
*382 FILLER_13_222
*383 FILLER_13_238
*384 FILLER_13_239
*385 FILLER_13_243
*386 FILLER_13_244
*387 FILLER_13_25
*388 FILLER_13_26
*389 FILLER_13_27
*390 FILLER_13_30
*391 FILLER_13_31
*392 FILLER_13_34
*393 FILLER_13_42
*394 FILLER_13_46
*395 FILLER_13_47
*396 FILLER_13_48
*397 FILLER_13_53
*398 FILLER_13_61
*399 FILLER_13_77
*400 FILLER_13_85
*401 FILLER_13_89
*402 FILLER_13_92
*403 FILLER_13_93
*404 FILLER_13_97
*405 FILLER_14_1
*406 FILLER_14_100
*407 FILLER_14_103
*408 FILLER_14_119
*409 FILLER_14_127
*410 FILLER_14_13
*411 FILLER_14_131
*412 FILLER_14_132
*413 FILLER_14_133
*414 FILLER_14_136
*415 FILLER_14_14
*416 FILLER_14_144
*417 FILLER_14_149
*418 FILLER_14_150
*419 FILLER_14_161
*420 FILLER_14_165
*421 FILLER_14_169
*422 FILLER_14_170
*423 FILLER_14_171
*424 FILLER_14_175
*425 FILLER_14_183
*426 FILLER_14_184
*427 FILLER_14_187
*428 FILLER_14_203
*429 FILLER_14_207
*430 FILLER_14_208
*431 FILLER_14_212
*432 FILLER_14_213
*433 FILLER_14_217
*434 FILLER_14_218
*435 FILLER_14_222
*436 FILLER_14_238
*437 FILLER_14_242
*438 FILLER_14_243
*439 FILLER_14_244
*440 FILLER_14_25
*441 FILLER_14_26
*442 FILLER_14_43
*443 FILLER_14_75
*444 FILLER_14_9
*445 FILLER_14_92
*446 FILLER_15_1
*447 FILLER_15_100
*448 FILLER_15_101
*449 FILLER_15_105
*450 FILLER_15_106
*451 FILLER_15_110
*452 FILLER_15_142
*453 FILLER_15_146
*454 FILLER_15_163
*455 FILLER_15_17
*456 FILLER_15_195
*457 FILLER_15_196
*458 FILLER_15_197
*459 FILLER_15_200
*460 FILLER_15_201
*461 FILLER_15_218
*462 FILLER_15_23
*463 FILLER_15_234
*464 FILLER_15_242
*465 FILLER_15_243
*466 FILLER_15_244
*467 FILLER_15_31
*468 FILLER_15_42
*469 FILLER_15_74
*470 FILLER_15_90
*471 FILLER_15_91
*472 FILLER_15_92
*473 FILLER_15_96
*474 FILLER_16_1
*475 FILLER_16_100
*476 FILLER_16_132
*477 FILLER_16_158
*478 FILLER_16_159
*479 FILLER_16_162
*480 FILLER_16_194
*481 FILLER_16_202
*482 FILLER_16_203
*483 FILLER_16_204
*484 FILLER_16_208
*485 FILLER_16_240
*486 FILLER_16_244
*487 FILLER_16_33
*488 FILLER_16_65
*489 FILLER_16_81
*490 FILLER_16_85
*491 FILLER_16_96
*492 FILLER_16_97
*493 FILLER_17_1
*494 FILLER_17_123
*495 FILLER_17_155
*496 FILLER_17_17
*497 FILLER_17_187
*498 FILLER_17_203
*499 FILLER_17_214
*500 FILLER_17_230
*501 FILLER_17_238
*502 FILLER_17_242
*503 FILLER_17_243
*504 FILLER_17_244
*505 FILLER_17_27
*506 FILLER_17_59
*507 FILLER_17_91
*508 FILLER_18_1
*509 FILLER_18_121
*510 FILLER_18_125
*511 FILLER_18_126
*512 FILLER_18_127
*513 FILLER_18_13
*514 FILLER_18_130
*515 FILLER_18_14
*516 FILLER_18_146
*517 FILLER_18_154
*518 FILLER_18_158
*519 FILLER_18_159
*520 FILLER_18_160
*521 FILLER_18_164
*522 FILLER_18_18
*523 FILLER_18_19
*524 FILLER_18_196
*525 FILLER_18_204
*526 FILLER_18_224
*527 FILLER_18_23
*528 FILLER_18_24
*529 FILLER_18_240
*530 FILLER_18_244
*531 FILLER_18_27
*532 FILLER_18_28
*533 FILLER_18_39
*534 FILLER_18_71
*535 FILLER_18_89
*536 FILLER_18_9
*537 FILLER_19_1
*538 FILLER_19_104
*539 FILLER_19_136
*540 FILLER_19_168
*541 FILLER_19_2
*542 FILLER_19_200
*543 FILLER_19_208
*544 FILLER_19_209
*545 FILLER_19_210
*546 FILLER_19_213
*547 FILLER_19_23
*548 FILLER_19_31
*549 FILLER_19_35
*550 FILLER_19_36
*551 FILLER_19_37
*552 FILLER_19_40
*553 FILLER_19_7
*554 FILLER_19_72
*555 FILLER_1_1
*556 FILLER_1_101
*557 FILLER_1_105
*558 FILLER_1_106
*559 FILLER_1_110
*560 FILLER_1_142
*561 FILLER_1_17
*562 FILLER_1_174
*563 FILLER_1_206
*564 FILLER_1_238
*565 FILLER_1_239
*566 FILLER_1_243
*567 FILLER_1_244
*568 FILLER_1_25
*569 FILLER_1_32
*570 FILLER_1_64
*571 FILLER_1_96
*572 FILLER_1_97
*573 FILLER_20_1
*574 FILLER_20_105
*575 FILLER_20_109
*576 FILLER_20_110
*577 FILLER_20_111
*578 FILLER_20_122
*579 FILLER_20_123
*580 FILLER_20_126
*581 FILLER_20_130
*582 FILLER_20_131
*583 FILLER_20_132
*584 FILLER_20_14
*585 FILLER_20_149
*586 FILLER_20_157
*587 FILLER_20_161
*588 FILLER_20_162
*589 FILLER_20_163
*590 FILLER_20_174
*591 FILLER_20_175
*592 FILLER_20_176
*593 FILLER_20_179
*594 FILLER_20_187
*595 FILLER_20_191
*596 FILLER_20_194
*597 FILLER_20_195
*598 FILLER_20_199
*599 FILLER_20_2
*600 FILLER_20_200
*601 FILLER_20_217
*602 FILLER_20_233
*603 FILLER_20_241
*604 FILLER_20_25
*605 FILLER_20_29
*606 FILLER_20_30
*607 FILLER_20_31
*608 FILLER_20_48
*609 FILLER_20_56
*610 FILLER_20_57
*611 FILLER_20_60
*612 FILLER_20_64
*613 FILLER_20_65
*614 FILLER_20_68
*615 FILLER_20_69
*616 FILLER_20_8
*617 FILLER_20_80
*618 FILLER_20_81
*619 FILLER_20_85
*620 FILLER_20_9
*621 FILLER_20_95
*622 FILLER_21_1
*623 FILLER_21_103
*624 FILLER_21_104
*625 FILLER_21_108
*626 FILLER_21_109
*627 FILLER_21_113
*628 FILLER_21_121
*629 FILLER_21_124
*630 FILLER_21_132
*631 FILLER_21_133
*632 FILLER_21_136
*633 FILLER_21_137
*634 FILLER_21_138
*635 FILLER_21_14
*636 FILLER_21_15
*637 FILLER_21_155
*638 FILLER_21_163
*639 FILLER_21_167
*640 FILLER_21_171
*641 FILLER_21_172
*642 FILLER_21_189
*643 FILLER_21_197
*644 FILLER_21_198
*645 FILLER_21_2
*646 FILLER_21_20
*647 FILLER_21_201
*648 FILLER_21_21
*649 FILLER_21_22
*650 FILLER_21_233
*651 FILLER_21_241
*652 FILLER_21_39
*653 FILLER_21_40
*654 FILLER_21_43
*655 FILLER_21_59
*656 FILLER_21_63
*657 FILLER_21_64
*658 FILLER_21_68
*659 FILLER_21_72
*660 FILLER_21_73
*661 FILLER_21_74
*662 FILLER_21_77
*663 FILLER_21_78
*664 FILLER_21_8
*665 FILLER_21_9
*666 FILLER_21_95
*667 FILLER_22_1
*668 FILLER_22_121
*669 FILLER_22_13
*670 FILLER_22_147
*671 FILLER_22_179
*672 FILLER_22_2
*673 FILLER_22_21
*674 FILLER_22_211
*675 FILLER_22_243
*676 FILLER_22_244
*677 FILLER_22_25
*678 FILLER_22_29
*679 FILLER_22_30
*680 FILLER_22_34
*681 FILLER_22_66
*682 FILLER_22_7
*683 FILLER_22_8
*684 FILLER_22_82
*685 FILLER_22_89
*686 FILLER_23_1
*687 FILLER_23_129
*688 FILLER_23_161
*689 FILLER_23_193
*690 FILLER_23_225
*691 FILLER_23_241
*692 FILLER_23_33
*693 FILLER_23_65
*694 FILLER_23_97
*695 FILLER_2_1
*696 FILLER_2_105
*697 FILLER_2_106
*698 FILLER_2_110
*699 FILLER_2_111
*700 FILLER_2_115
*701 FILLER_2_13
*702 FILLER_2_14
*703 FILLER_2_147
*704 FILLER_2_15
*705 FILLER_2_153
*706 FILLER_2_157
*707 FILLER_2_158
*708 FILLER_2_159
*709 FILLER_2_163
*710 FILLER_2_170
*711 FILLER_2_186
*712 FILLER_2_19
*713 FILLER_2_190
*714 FILLER_2_191
*715 FILLER_2_192
*716 FILLER_2_197
*717 FILLER_2_198
*718 FILLER_2_20
*719 FILLER_2_202
*720 FILLER_2_221
*721 FILLER_2_222
*722 FILLER_2_226
*723 FILLER_2_227
*724 FILLER_2_231
*725 FILLER_2_238
*726 FILLER_2_239
*727 FILLER_2_24
*728 FILLER_2_243
*729 FILLER_2_244
*730 FILLER_2_25
*731 FILLER_2_31
*732 FILLER_2_32
*733 FILLER_2_38
*734 FILLER_2_46
*735 FILLER_2_50
*736 FILLER_2_51
*737 FILLER_2_57
*738 FILLER_2_58
*739 FILLER_2_64
*740 FILLER_2_80
*741 FILLER_2_88
*742 FILLER_2_9
*743 FILLER_2_92
*744 FILLER_2_98
*745 FILLER_2_99
*746 FILLER_3_1
*747 FILLER_3_100
*748 FILLER_3_104
*749 FILLER_3_105
*750 FILLER_3_108
*751 FILLER_3_112
*752 FILLER_3_116
*753 FILLER_3_117
*754 FILLER_3_121
*755 FILLER_3_122
*756 FILLER_3_126
*757 FILLER_3_142
*758 FILLER_3_150
*759 FILLER_3_154
*760 FILLER_3_155
*761 FILLER_3_160
*762 FILLER_3_161
*763 FILLER_3_166
*764 FILLER_3_167
*765 FILLER_3_17
*766 FILLER_3_170
*767 FILLER_3_186
*768 FILLER_3_190
*769 FILLER_3_191
*770 FILLER_3_192
*771 FILLER_3_195
*772 FILLER_3_196
*773 FILLER_3_200
*774 FILLER_3_201
*775 FILLER_3_205
*776 FILLER_3_206
*777 FILLER_3_210
*778 FILLER_3_220
*779 FILLER_3_221
*780 FILLER_3_222
*781 FILLER_3_225
*782 FILLER_3_233
*783 FILLER_3_237
*784 FILLER_3_238
*785 FILLER_3_239
*786 FILLER_3_243
*787 FILLER_3_244
*788 FILLER_3_25
*789 FILLER_3_34
*790 FILLER_3_35
*791 FILLER_3_39
*792 FILLER_3_47
*793 FILLER_3_48
*794 FILLER_3_49
*795 FILLER_3_53
*796 FILLER_3_54
*797 FILLER_3_55
*798 FILLER_3_59
*799 FILLER_3_91
*800 FILLER_3_99
*801 FILLER_4_1
*802 FILLER_4_101
*803 FILLER_4_106
*804 FILLER_4_107
*805 FILLER_4_111
*806 FILLER_4_143
*807 FILLER_4_175
*808 FILLER_4_183
*809 FILLER_4_184
*810 FILLER_4_187
*811 FILLER_4_188
*812 FILLER_4_192
*813 FILLER_4_193
*814 FILLER_4_197
*815 FILLER_4_198
*816 FILLER_4_202
*817 FILLER_4_234
*818 FILLER_4_242
*819 FILLER_4_243
*820 FILLER_4_244
*821 FILLER_4_33
*822 FILLER_4_37
*823 FILLER_4_38
*824 FILLER_4_44
*825 FILLER_4_45
*826 FILLER_4_51
*827 FILLER_4_52
*828 FILLER_4_53
*829 FILLER_4_57
*830 FILLER_4_89
*831 FILLER_4_97
*832 FILLER_5_1
*833 FILLER_5_105
*834 FILLER_5_112
*835 FILLER_5_116
*836 FILLER_5_117
*837 FILLER_5_118
*838 FILLER_5_123
*839 FILLER_5_155
*840 FILLER_5_171
*841 FILLER_5_172
*842 FILLER_5_173
*843 FILLER_5_184
*844 FILLER_5_216
*845 FILLER_5_232
*846 FILLER_5_240
*847 FILLER_5_244
*848 FILLER_5_33
*849 FILLER_5_45
*850 FILLER_5_49
*851 FILLER_5_50
*852 FILLER_5_51
*853 FILLER_5_55
*854 FILLER_5_87
*855 FILLER_5_97
*856 FILLER_6_1
*857 FILLER_6_100
*858 FILLER_6_104
*859 FILLER_6_105
*860 FILLER_6_109
*861 FILLER_6_113
*862 FILLER_6_117
*863 FILLER_6_149
*864 FILLER_6_181
*865 FILLER_6_197
*866 FILLER_6_205
*867 FILLER_6_206
*868 FILLER_6_207
*869 FILLER_6_210
*870 FILLER_6_211
*871 FILLER_6_212
*872 FILLER_6_216
*873 FILLER_6_217
*874 FILLER_6_221
*875 FILLER_6_237
*876 FILLER_6_238
*877 FILLER_6_239
*878 FILLER_6_243
*879 FILLER_6_244
*880 FILLER_6_33
*881 FILLER_6_44
*882 FILLER_6_76
*883 FILLER_6_84
*884 FILLER_6_88
*885 FILLER_6_92
*886 FILLER_7_1
*887 FILLER_7_110
*888 FILLER_7_118
*889 FILLER_7_122
*890 FILLER_7_123
*891 FILLER_7_124
*892 FILLER_7_129
*893 FILLER_7_130
*894 FILLER_7_134
*895 FILLER_7_150
*896 FILLER_7_151
*897 FILLER_7_152
*898 FILLER_7_156
*899 FILLER_7_188
*900 FILLER_7_196
*901 FILLER_7_200
*902 FILLER_7_201
*903 FILLER_7_202
*904 FILLER_7_206
*905 FILLER_7_207
*906 FILLER_7_211
*907 FILLER_7_212
*908 FILLER_7_216
*909 FILLER_7_220
*910 FILLER_7_221
*911 FILLER_7_226
*912 FILLER_7_242
*913 FILLER_7_243
*914 FILLER_7_244
*915 FILLER_7_33
*916 FILLER_7_37
*917 FILLER_7_38
*918 FILLER_7_42
*919 FILLER_7_43
*920 FILLER_7_46
*921 FILLER_7_78
*922 FILLER_8_1
*923 FILLER_8_104
*924 FILLER_8_105
*925 FILLER_8_106
*926 FILLER_8_110
*927 FILLER_8_111
*928 FILLER_8_115
*929 FILLER_8_131
*930 FILLER_8_139
*931 FILLER_8_143
*932 FILLER_8_144
*933 FILLER_8_145
*934 FILLER_8_149
*935 FILLER_8_157
*936 FILLER_8_158
*937 FILLER_8_162
*938 FILLER_8_163
*939 FILLER_8_167
*940 FILLER_8_17
*941 FILLER_8_199
*942 FILLER_8_203
*943 FILLER_8_204
*944 FILLER_8_205
*945 FILLER_8_209
*946 FILLER_8_210
*947 FILLER_8_214
*948 FILLER_8_215
*949 FILLER_8_218
*950 FILLER_8_234
*951 FILLER_8_238
*952 FILLER_8_239
*953 FILLER_8_243
*954 FILLER_8_244
*955 FILLER_8_25
*956 FILLER_8_32
*957 FILLER_8_64
*958 FILLER_8_72
*959 FILLER_8_76
*960 FILLER_8_77
*961 FILLER_8_78
*962 FILLER_8_82
*963 FILLER_8_86
*964 FILLER_8_91
*965 FILLER_8_92
*966 FILLER_8_96
*967 FILLER_9_1
*968 FILLER_9_118
*969 FILLER_9_122
*970 FILLER_9_126
*971 FILLER_9_142
*972 FILLER_9_150
*973 FILLER_9_151
*974 FILLER_9_152
*975 FILLER_9_157
*976 FILLER_9_158
*977 FILLER_9_161
*978 FILLER_9_17
*979 FILLER_9_193
*980 FILLER_9_207
*981 FILLER_9_21
*982 FILLER_9_239
*983 FILLER_9_243
*984 FILLER_9_244
*985 FILLER_9_32
*986 FILLER_9_33
*987 FILLER_9_37
*988 FILLER_9_38
*989 FILLER_9_39
*990 FILLER_9_43
*991 FILLER_9_44
*992 FILLER_9_48
*993 FILLER_9_54
*994 FILLER_9_70
*995 FILLER_9_78
*996 FILLER_9_82
*997 FILLER_9_86
*998 PHY_0
*999 PHY_1
*1000 PHY_10
*1001 PHY_11
*1002 PHY_12
*1003 PHY_13
*1004 PHY_14
*1005 PHY_15
*1006 PHY_16
*1007 PHY_17
*1008 PHY_18
*1009 PHY_19
*1010 PHY_2
*1011 PHY_20
*1012 PHY_21
*1013 PHY_22
*1014 PHY_23
*1015 PHY_24
*1016 PHY_25
*1017 PHY_26
*1018 PHY_27
*1019 PHY_28
*1020 PHY_29
*1021 PHY_3
*1022 PHY_30
*1023 PHY_31
*1024 PHY_32
*1025 PHY_33
*1026 PHY_34
*1027 PHY_35
*1028 PHY_36
*1029 PHY_37
*1030 PHY_38
*1031 PHY_39
*1032 PHY_4
*1033 PHY_40
*1034 PHY_41
*1035 PHY_42
*1036 PHY_43
*1037 PHY_44
*1038 PHY_45
*1039 PHY_46
*1040 PHY_47
*1041 PHY_5
*1042 PHY_6
*1043 PHY_7
*1044 PHY_8
*1045 PHY_9
*1046 _225_
*1047 _227_
*1048 _228_
*1049 _229_
*1050 _230_
*1051 _231_
*1052 _232_
*1053 _233_
*1054 _234_
*1055 _235_
*1056 _236_
*1057 _237_
*1058 _238_
*1059 _239_
*1060 _240_
*1061 _241_
*1062 _242_
*1063 _243_
*1064 _244_
*1065 _245_
*1066 _246_
*1067 _247_
*1068 _248_
*1069 _249_
*1070 _250_
*1071 _251_
*1072 _252_
*1073 _253_
*1074 _254_
*1075 _255_
*1076 _256_
*1077 _257_
*1078 _258_
*1079 _259_
*1080 _260_
*1081 _261_
*1082 _262_
*1083 _263_
*1084 _264_
*1085 _265_
*1086 _266_
*1087 _267_
*1088 _268_
*1089 _269_
*1090 _270_
*1091 _271_
*1092 _272_
*1093 _273_
*1094 _274_
*1095 _275_
*1096 _276_
*1097 _277_
*1098 _278_
*1099 _279_
*1100 _280_
*1101 _281_
*1102 _282_
*1103 _283_
*1104 _284_
*1105 _285_
*1106 _286_
*1107 _287_
*1108 _288_
*1109 _289_
*1110 _290_
*1111 _291_
*1112 _292_
*1113 _293_
*1114 _294_
*1115 _295_
*1116 _296_
*1117 _297_
*1118 _298_
*1119 _299_
*1120 _300_
*1121 _301_
*1122 _302_
*1123 _303_
*1124 _304_
*1125 _305_
*1126 _306_
*1127 _307_
*1128 _308_
*1129 _309_
*1130 _310_
*1131 _311_
*1132 _312_
*1133 _313_
*1134 _314_
*1135 _315_
*1136 _316_
*1137 _317_
*1138 _318_
*1139 _319_
*1140 _320_
*1141 _321_
*1142 _322_
*1143 _323_
*1144 _324_
*1145 _325_
*1146 _326_
*1147 _327_
*1148 _328_
*1149 _329_
*1150 _330_
*1151 _331_
*1152 _332_
*1153 _333_
*1154 _334_
*1155 _335_
*1156 _336_
*1157 _337_
*1158 _338_
*1159 _339_
*1160 _340_
*1161 _341_
*1162 _342_
*1163 _343_
*1164 _344_
*1165 _345_
*1166 _346_
*1167 _347_
*1168 _348_
*1169 _349_
*1170 _350_
*1171 _351_
*1172 _352_
*1173 _353_
*1174 _354_
*1175 _355_
*1176 _356_
*1177 _357_
*1178 _358_
*1179 _359_
*1180 _360_
*1181 _361_
*1182 _362_
*1183 _363_
*1184 _364_
*1185 _365_
*1186 _366_
*1187 _367_
*1188 _368_
*1189 _369_
*1190 _370_
*1191 _371_
*1192 _372_
*1193 _373_
*1194 _374_
*1195 _375_
*1196 _376_
*1197 _377_
*1198 _378_
*1199 _379_
*1200 _380_
*1201 _381_
*1202 _382_
*1203 _383_
*1204 _384_
*1205 _385_
*1206 _386_
*1207 _387_
*1208 _388_
*1209 _389_
*1210 _390_
*1211 _391_
*1212 _392_
*1213 _393_
*1214 _394_
*1215 _395_
*1216 _396_
*1217 _397_
*1218 _398_
*1219 _399_
*1220 _400_
*1221 _401_
*1222 _402_
*1223 _403_
*1224 _404_
*1225 _405_
*1226 _406_
*1227 _407_
*1228 _408_
*1229 _409_
*1230 _410_
*1231 _411_
*1232 _412_
*1233 _413_
*1234 _414_
*1235 _415_
*1236 _416_
*1237 _417_
*1238 _418_
*1239 _419_
*1240 _420_
*1241 _421_
*1242 _422_
*1243 _423_
*1244 _424_
*1245 _425_
*1246 _426_
*1247 input1
*1248 input10
*1249 input11
*1250 input12
*1251 input2
*1252 input3
*1253 input4
*1254 input5
*1255 input6
*1256 input7
*1257 input8
*1258 input9
*1259 output13
*1260 output14
*1261 output15
*1262 output16
*1263 output17
*1264 output18
*1265 output19
*1266 output20

*PORTS
A[0] I
A[1] I
A[2] I
A[3] I
B[0] I
B[1] I
B[2] I
B[3] I
CTRL[0] I
CTRL[1] I
CTRL[2] I
CTRL[3] I
Y[0] O
Y[1] O
Y[2] O
Y[3] O
Y[4] O
Y[5] O
Y[6] O
Y[7] O

*D_NET *1 0.000287172
*CONN
*P A[0] I
*I *1247:A I *D CLKBUF_X2
*CAP
1 A[0] 0.000119216
2 *1247:A 0.000119216
3 *1247:A *1251:A 4.85235e-05
4 *1247:A *1253:A 0
5 *1247:A *1257:A 0
6 *1247:A *256:8 2.16072e-07
7 *1247:A *263:6 0
*RES
1 A[0] *1247:A 23.6964 
*END

*D_NET *2 0.000175185
*CONN
*P A[1] I
*I *1251:A I *D CLKBUF_X3
*CAP
1 A[1] 4.7244e-05
2 *1251:A 4.7244e-05
3 *1251:A *1252:A 2.90798e-05
4 *1251:A *1257:A 3.09411e-06
5 *1247:A *1251:A 4.85235e-05
*RES
1 A[1] *1251:A 17.9464 
*END

*D_NET *3 0.0002827
*CONN
*P A[2] I
*I *1252:A I *D CLKBUF_X3
*CAP
1 A[2] 8.45491e-05
2 *1252:A 8.45491e-05
3 *1252:A *1253:A 5.07544e-05
4 *1252:A *1254:A 2.35379e-05
5 *1252:A *1257:A 7.03367e-06
6 *1252:A *258:10 3.1962e-06
7 *1251:A *1252:A 2.90798e-05
*RES
1 A[2] *1252:A 22.9464 
*END

*D_NET *4 0.000366288
*CONN
*P A[3] I
*I *1253:A I *D BUF_X2
*CAP
1 A[3] 0.00012
2 *1253:A 0.00012
3 *1253:A *1254:A 2.72417e-06
4 *1253:A *1255:A 9.78105e-06
5 *1253:A *1257:A 4.15119e-05
6 *1253:A *258:10 2.15168e-05
7 *1253:A *259:8 0
8 *1247:A *1253:A 0
9 *1252:A *1253:A 5.07544e-05
*RES
1 A[3] *1253:A 26.9464 
*END

*D_NET *5 0.000370727
*CONN
*P B[0] I
*I *1254:A I *D BUF_X2
*CAP
1 B[0] 0.000101642
2 *1254:A 0.000101642
3 *1254:A *1255:A 4.37197e-05
4 *1254:A *1256:A 0
5 *1254:A *1257:A 9.68227e-05
6 *1254:A *260:8 6.38328e-07
7 *1252:A *1254:A 2.35379e-05
8 *1253:A *1254:A 2.72417e-06
*RES
1 B[0] *1254:A 24.1964 
*END

*D_NET *6 0.000448587
*CONN
*P B[1] I
*I *1255:A I *D BUF_X2
*CAP
1 B[1] 0.000113365
2 *1255:A 0.000113365
3 *1255:A *1099:A2 0
4 *1255:A *1256:A 4.21352e-05
5 *1255:A *258:10 0.000115981
6 *1255:A *259:8 1.02394e-05
7 *1253:A *1255:A 9.78105e-06
8 *1254:A *1255:A 4.37197e-05
*RES
1 B[1] *1255:A 27.2679 
*END

*D_NET *7 0.000303704
*CONN
*P B[2] I
*I *1256:A I *D BUF_X2
*CAP
1 B[2] 0.000130068
2 *1256:A 0.000130068
3 *1256:A *260:8 7.16188e-07
4 *1256:A *262:7 7.16188e-07
5 *1254:A *1256:A 0
6 *1255:A *1256:A 4.21352e-05
*RES
1 B[2] *1256:A 25.0179 
*END

*D_NET *8 0.000394326
*CONN
*P B[3] I
*I *1257:A I *D BUF_X2
*CAP
1 B[3] 0.000122932
2 *1257:A 0.000122932
3 *1257:A *256:8 0
4 *1247:A *1257:A 0
5 *1251:A *1257:A 3.09411e-06
6 *1252:A *1257:A 7.03367e-06
7 *1253:A *1257:A 4.15119e-05
8 *1254:A *1257:A 9.68227e-05
*RES
1 B[3] *1257:A 26.1964 
*END

*D_NET *9 0.000230121
*CONN
*P CTRL[0] I
*I *1258:A I *D BUF_X2
*CAP
1 CTRL[0] 8.56099e-05
2 *1258:A 8.56099e-05
3 *1258:A *1053:A 2.57909e-05
4 *1258:A *1248:A 3.28946e-05
5 *1258:A *246:9 2.16072e-07
*RES
1 CTRL[0] *1258:A 25.7679 
*END

*D_NET *10 0.000164038
*CONN
*P CTRL[1] I
*I *1248:A I *D BUF_X2
*CAP
1 CTRL[1] 6.55715e-05
2 *1248:A 6.55715e-05
3 *1258:A *1248:A 3.28946e-05
*RES
1 CTRL[1] *1248:A 13.0536 
*END

*D_NET *11 0.000298487
*CONN
*P CTRL[2] I
*I *1249:A I *D BUF_X1
*CAP
1 CTRL[2] 0.00011941
2 *1249:A 0.00011941
3 *1249:A *1250:A 3.28946e-05
4 *1249:A *37:6 0
5 *1249:A *248:9 2.67723e-05
*RES
1 CTRL[2] *1249:A 29.7321 
*END

*D_NET *12 0.000164038
*CONN
*P CTRL[3] I
*I *1250:A I *D CLKBUF_X2
*CAP
1 CTRL[3] 6.55715e-05
2 *1250:A 6.55715e-05
3 *1249:A *1250:A 3.28946e-05
*RES
1 CTRL[3] *1250:A 13.0536 
*END

*D_NET *13 0.000141808
*CONN
*P Y[0] O
*I *1259:Z O *D BUF_X1
*CAP
1 Y[0] 7.09042e-05
2 *1259:Z 7.09042e-05
*RES
1 *1259:Z Y[0] 18.125 
*END

*D_NET *14 0.000159262
*CONN
*P Y[1] O
*I *1260:Z O *D BUF_X1
*CAP
1 Y[1] 7.96309e-05
2 *1260:Z 7.96309e-05
*RES
1 *1260:Z Y[1] 19.125 
*END

*D_NET *15 0.000161185
*CONN
*P Y[2] O
*I *1261:Z O *D BUF_X1
*CAP
1 Y[2] 7.69795e-05
2 *1261:Z 7.69795e-05
3 Y[2] Y[6] 7.22584e-06
*RES
1 *1261:Z Y[2] 19.125 
*END

*D_NET *16 0.000124355
*CONN
*P Y[3] O
*I *1262:Z O *D BUF_X1
*CAP
1 Y[3] 6.21776e-05
2 *1262:Z 6.21776e-05
*RES
1 *1262:Z Y[3] 17.125 
*END

*D_NET *17 0.000141808
*CONN
*P Y[4] O
*I *1263:Z O *D BUF_X1
*CAP
1 Y[4] 7.09042e-05
2 *1263:Z 7.09042e-05
*RES
1 *1263:Z Y[4] 18.125 
*END

*D_NET *18 0.000146279
*CONN
*P Y[5] O
*I *1264:Z O *D BUF_X1
*CAP
1 Y[5] 5.01973e-05
2 *1264:Z 5.01973e-05
3 Y[5] Y[6] 2.71377e-06
4 Y[5] Y[7] 4.31707e-05
*RES
1 *1264:Z Y[5] 17.125 
*END

*D_NET *19 0.000217891
*CONN
*P Y[6] O
*I *1265:Z O *D BUF_X1
*CAP
1 Y[6] 7.46159e-05
2 *1265:Z 7.46159e-05
3 Y[6] Y[7] 4.31707e-05
4 Y[6] *1264:A 1.55484e-05
5 Y[2] Y[6] 7.22584e-06
6 Y[5] Y[6] 2.71377e-06
*RES
1 *1265:Z Y[6] 20.5179 
*END

*D_NET *20 0.000231596
*CONN
*P Y[7] O
*I *1266:Z O *D BUF_X1
*CAP
1 Y[7] 7.25194e-05
2 *1266:Z 7.25194e-05
3 Y[7] *1264:A 2.16072e-07
4 Y[5] Y[7] 4.31707e-05
5 Y[6] Y[7] 4.31707e-05
*RES
1 *1266:Z Y[7] 20.125 
*END

*D_NET *23 0.000318335
*CONN
*I *1063:A2 I *D NAND2_X1
*I *1049:A1 I *D NAND2_X2
*I *1048:ZN O *D INV_X2
*CAP
1 *1063:A2 5.54136e-05
2 *1049:A1 0
3 *1048:ZN 1.37225e-05
4 *23:8 6.9136e-05
5 *1063:A2 *1049:A2 2.52965e-06
6 *1063:A2 *1063:A1 9.24306e-06
7 *1063:A2 *247:7 0
8 *1063:A2 *248:9 0
9 *23:8 *1062:A 6.91849e-05
10 *23:8 *247:10 1.72084e-05
11 *23:8 *248:18 8.18974e-05
*RES
1 *1048:ZN *23:8 19.3214 
2 *23:8 *1049:A1 5 
3 *23:8 *1063:A2 10.6786 
*END

*D_NET *24 0.00159825
*CONN
*I *1059:A2 I *D NOR2_X2
*I *1050:A2 I *D NOR2_X1
*I *1055:A2 I *D NOR2_X2
*I *1049:ZN O *D NAND2_X2
*CAP
1 *1059:A2 0
2 *1050:A2 5.13214e-05
3 *1055:A2 0
4 *1049:ZN 0.000124739
5 *24:21 0.000432899
6 *24:14 0.000420925
7 *24:11 0.000164087
8 *1050:A2 *1152:A1 2.11458e-06
9 *1050:A2 *1157:A1 1.39839e-06
10 *1050:A2 *25:9 8.31026e-06
11 *1050:A2 *61:7 0
12 *24:11 *1082:A1 9.1535e-05
13 *24:11 *1082:A2 0
14 *24:11 *1086:A2 3.41146e-05
15 *24:11 *1165:A1 4.30918e-06
16 *24:11 *33:9 2.86077e-05
17 *24:11 *36:27 6.31548e-06
18 *24:11 *45:8 2.57883e-05
19 *24:11 *56:8 1.64551e-05
20 *24:11 *248:18 0
21 *24:11 *248:27 0
22 *24:14 *30:8 3.29625e-06
23 *24:14 *33:9 0
24 *24:14 *34:8 2.69048e-06
25 *24:14 *56:23 7.9018e-06
26 *24:14 *60:11 1.03386e-05
27 *24:21 *1055:A1 1.78208e-05
28 *24:21 *1058:A1 0
29 *24:21 *1159:A 5.28042e-06
30 *24:21 *1159:B1 1.99437e-05
31 *24:21 *1160:A2 7.90351e-05
32 *24:21 *30:8 8.94068e-08
33 *24:21 *33:9 0
34 *24:21 *45:31 0
35 *24:21 *56:23 1.44607e-05
36 *24:21 *57:12 3.81149e-06
37 *24:21 *60:43 2.3767e-06
38 *24:21 *60:52 8.1183e-06
39 *24:21 *61:15 1.01615e-05
40 *24:21 *152:15 0
41 *24:21 *152:29 0
42 *24:21 *234:23 0
*RES
1 *1049:ZN *24:11 31.7143 
2 *24:11 *24:14 10 
3 *24:14 *1055:A2 10 
4 *24:14 *24:21 45.0357 
5 *24:21 *1050:A2 15.25 
6 *24:11 *1059:A2 5 
*END

*D_NET *25 0.00231865
*CONN
*I *1152:A1 I *D NAND2_X1
*I *1103:A1 I *D NAND2_X1
*I *1052:A1 I *D NAND2_X1
*I *1050:ZN O *D NOR2_X1
*CAP
1 *1152:A1 0.000104233
2 *1103:A1 0.000259282
3 *1052:A1 8.77379e-06
4 *1050:ZN 6.19361e-05
5 *25:12 0.000730188
6 *25:11 0.000462133
7 *25:9 0.000166169
8 *1052:A1 *1056:A2 2.16072e-07
9 *1052:A1 *1066:A 6.48216e-07
10 *1103:A1 *1057:A1 3.82567e-05
11 *1103:A1 *1068:A1 0
12 *1103:A1 *1101:A1 4.77694e-05
13 *1103:A1 *1103:A2 5.05238e-06
14 *1103:A1 *1138:A 0
15 *1103:A1 *30:16 6.81431e-05
16 *1103:A1 *202:9 4.70058e-05
17 *1103:A1 *203:9 3.52528e-05
18 *1103:A1 *249:6 0
19 *1152:A1 *1152:A2 8.43215e-07
20 *1152:A1 *1157:A1 0
21 *1152:A1 *1160:A1 0
22 *1152:A1 *1160:A2 0
23 *1152:A1 *1167:A3 1.04928e-05
24 *1152:A1 *46:11 0
25 *25:9 *1072:A1 9.57492e-07
26 *25:9 *1072:A2 2.52965e-06
27 *25:9 *1075:A1 1.01341e-05
28 *25:9 *46:11 1.91954e-06
29 *25:12 *1052:A2 0.000107163
30 *25:12 *1056:A2 0
31 *25:12 *1057:A1 1.88334e-06
32 *25:12 *1061:A2 4.76429e-07
33 *25:12 *1068:A1 0
34 *25:12 *1084:A 0
35 *25:12 *1085:A1 0
36 *25:12 *1085:A3 0
37 *25:12 *1088:A1 1.89794e-05
38 *25:12 *1093:A2 0
39 *25:12 *30:16 5.30786e-06
40 *25:12 *45:31 0
41 *25:12 *45:45 0
42 *25:12 *60:52 7.75003e-05
43 *25:12 *184:20 2.95389e-05
44 *25:12 *216:8 5.43678e-06
45 *1050:A2 *1152:A1 2.11458e-06
46 *1050:A2 *25:9 8.31026e-06
*RES
1 *1050:ZN *25:9 11.9286 
2 *25:9 *25:11 5 
3 *25:11 *25:12 54.5357 
4 *25:12 *1052:A1 10.75 
5 *25:12 *1103:A1 40.3943 
6 *25:9 *1152:A1 15.75 
*END

*D_NET *26 0.000189106
*CONN
*I *1052:A2 I *D NAND2_X1
*I *1051:ZN O *D INV_X1
*CAP
1 *1052:A2 3.5662e-05
2 *1051:ZN 3.5662e-05
3 *1052:A2 *1056:A2 0
4 *1052:A2 *1061:A1 3.47618e-06
5 *1052:A2 *1061:A2 7.14239e-06
6 *1052:A2 *227:6 0
7 *25:12 *1052:A2 0.000107163
*RES
1 *1051:ZN *1052:A2 25.6786 
*END

*D_NET *27 0.000217202
*CONN
*I *1057:A1 I *D NAND2_X1
*I *1052:ZN O *D NAND2_X1
*CAP
1 *1057:A1 6.7423e-05
2 *1052:ZN 6.7423e-05
3 *1057:A1 *1057:A2 8.64288e-07
4 *1057:A1 *1068:A1 8.3499e-06
5 *1057:A1 *1108:A1 3.30017e-05
6 *1103:A1 *1057:A1 3.82567e-05
7 *25:12 *1057:A1 1.88334e-06
*RES
1 *1052:ZN *1057:A1 28.9286 
*END

*D_NET *28 0.000343856
*CONN
*I *1090:A1 I *D NOR2_X2
*I *1058:A2 I *D NAND2_X1
*I *1054:A1 I *D NAND2_X1
*I *1053:ZN O *D INV_X4
*CAP
1 *1090:A1 2.53328e-05
2 *1058:A2 4.42705e-06
3 *1054:A1 2.07564e-05
4 *1053:ZN 6.76703e-06
5 *28:9 8.15552e-05
6 *28:6 8.84716e-05
7 *1054:A1 *1054:A2 3.65322e-06
8 *1054:A1 *33:9 1.0596e-05
9 *1054:A1 *45:22 5.55985e-05
10 *1090:A1 *1054:A2 5.64879e-06
11 *1090:A1 *246:19 1.50142e-05
12 *1090:A1 *246:26 5.11191e-06
13 *28:6 *1054:A2 6.30856e-06
14 *28:9 *1053:A 1.91498e-06
15 *28:9 *1054:A2 0
16 *28:9 *246:9 1.26998e-05
*RES
1 *1053:ZN *28:6 10.9286 
2 *28:6 *28:9 10.75 
3 *28:9 *1054:A1 18.7143 
4 *28:9 *1058:A2 5.75 
5 *28:6 *1090:A1 13.6429 
*END

*D_NET *29 0.000273555
*CONN
*I *1140:A2 I *D NOR2_X1
*I *1055:A1 I *D NOR2_X2
*I *1054:ZN O *D NAND2_X1
*CAP
1 *1140:A2 5.65519e-05
2 *1055:A1 2.55727e-05
3 *1054:ZN 3.08069e-05
4 *29:5 0.000112931
5 *1055:A1 *33:9 6.35619e-06
6 *1140:A2 *1083:A 1.09322e-05
7 *1140:A2 *1140:A1 1.25832e-05
8 *1140:A2 *1165:A1 0
9 *29:5 *1165:A1 0
10 *24:21 *1055:A1 1.78208e-05
*RES
1 *1054:ZN *29:5 7.75 
2 *29:5 *1055:A1 17.9643 
3 *29:5 *1140:A2 11.25 
*END

*D_NET *30 0.00422767
*CONN
*I *1190:A1 I *D NAND2_X1
*I *1163:A1 I *D NAND2_X1
*I *1101:A1 I *D NAND2_X1
*I *1056:A1 I *D NAND2_X1
*I *1055:ZN O *D NOR2_X2
*CAP
1 *1190:A1 0.000146483
2 *1163:A1 2.90243e-05
3 *1101:A1 0.00021443
4 *1056:A1 0
5 *1055:ZN 6.3694e-06
6 *30:39 0.000384386
7 *30:16 0.000241979
8 *30:13 0.000761574
9 *30:8 0.000949273
10 *1101:A1 *1104:A1 2.39745e-06
11 *1101:A1 *1106:A1 9.00668e-05
12 *1101:A1 *1108:A2 0
13 *1101:A1 *1123:A3 2.04507e-05
14 *1101:A1 *202:9 2.47442e-06
15 *1101:A1 *249:6 0
16 *1163:A1 *1153:A 2.59224e-06
17 *1163:A1 *1163:A2 1.21774e-06
18 *1163:A1 *1164:A2 4.24423e-05